
This summary file was generated by TurbSim (v2.00.07a-bjj, 14-Jun-2016) on 09-Sep-2024 at 12:46:13.


Runtime Options:

         1  Random seed #1
    RANLUX  Type of random number generator
         F  Output binary HH turbulence parameters?
         F  Output formatted turbulence parameters?
         F  Output AeroDyn HH files?
         F  Output AeroDyn FF files?
         T  Output BLADED FF files?
         F  Output tower data?
         F  Output formatted FF files?
         F  Output coherent turbulence time step file?
         T  Clockwise rotation when looking downwind?
 2 -   ALL  IEC turbulence models scaled to exact specified standard deviation


Turbine/Model Specifications:

        33  Vertical grid-point matrix dimension
        33  Horizontal grid-point matrix dimension
     0.250  Time step [seconds]
  4096.000  Analysis time [seconds]
  4096.000  Usable output time [seconds]
    90.000  Hub height [m]
   128.000  Grid height [m]
   128.000  Grid width [m]
     0.000  Vertical flow angle [degrees]
     0.000  Horizontal flow angle [degrees]


Meteorological Boundary Conditions:

    IECKAI  IEC Kaimal spectral model
         1  IEC standard: IEC 61400-1 Ed. 3: 2005
         A  IEC turbulence characteristic
       NTM  IEC Normal Turbulence Model
       N/A  IEC Extreme Turbulence Model (ETM) "c" parameter [m/s]
       IEC  Wind profile type
    90.000  Reference height [m]
    20.000  Reference wind speed [m/s]
       N/A  Jet height [m]
     0.200  Power law exponent
     0.030  Surface roughness length [m]


Non-IEC Meteorological Boundary Conditions:

       N/A  Site latitude [degrees]
       N/A  Gradient Richardson number
       N/A  Friction or shear velocity [m/s]
       N/A  Mixing layer depth [m]
       N/A  Mean hub u'w' Reynolds stress
       N/A  Mean hub u'v' Reynolds stress
       N/A  Mean hub v'w' Reynolds stress


Spatial Coherence Models:

       IEC  u-component coherence model
      NONE  v-component coherence model
      NONE  w-component coherence model
(   12.000, 0.353E-03)  u-component coherence parameters
                   N/A  v-component coherence parameters
                   N/A  w-component coherence parameters
       N/A  Coherence exponent


You have requested that the following file(s) be generated:

   TurbSim2a_Solution.wnd (AeroDyn/BLADED full-field wnd file)


Turbulence Simulation Scaling Parameter Summary:

   Turbulence model used                            =  IEC Kaimal
   Turbulence characteristic                        =  A
   IEC turbulence type                              =  Normal Turbulence Model
   IEC standard                                     =  IEC 61400-1 Ed. 3: 2005
   Mean wind speed at hub height                    =   20.000 m/s
   Expected value of turbulence intensity at 15 m/s =   16.000%
   Characteristic value of standard deviation       =    3.296 m/s
   Turbulence scale                                 =   42.000 m
   u-component integral scale                       =  340.200 m
   Coherency scale                                  =  340.200 m
   Characteristic value of hub turbulence intensity =   16.480%
   Gradient Richardson number                       =    0.000

   Wind profile type                                =  Power law on rotor disk, logarithmic elsewhere
   Power law exponent                               =    0.200
   Mean shear across rotor disk                     =    0.052 (m/s)/m
   Assumed rotor diameter                           =  128.000 m
   Surface roughness length                         =    0.030 m

   Nyquist frequency of turbulent wind field        =    2.000 Hz

   Number of time steps in the FFT                  =    16384
   Number of time steps output                      =    16384
   Number of points simulated                       =     1089


Mean Flow Angles:

   Vertical   =   0.0 degrees
   Horizontal =   0.0 degrees

Mean Wind Speed Profile:

   Height    Wind Speed   Horizontal Angle  Vertical Angle  U-comp (X)   V-comp (Y)   W-comp (Z)
     (m)        (m/s)         (degrees)       (degrees)       (m/s)        (m/s)        (m/s)   
   ------    ----------   ----------------  --------------  ----------   ----------   ----------
    154.0       22.27            0.00            0.00         22.27         0.00         0.00
    150.0       22.15            0.00            0.00         22.15         0.00         0.00
    146.0       22.03            0.00            0.00         22.03         0.00         0.00
    142.0       21.91            0.00            0.00         21.91         0.00         0.00
    138.0       21.78            0.00            0.00         21.78         0.00         0.00
    134.0       21.66            0.00            0.00         21.66         0.00         0.00
    130.0       21.53            0.00            0.00         21.53         0.00         0.00
    126.0       21.39            0.00            0.00         21.39         0.00         0.00
    122.0       21.25            0.00            0.00         21.25         0.00         0.00
    118.0       21.11            0.00            0.00         21.11         0.00         0.00
    114.0       20.97            0.00            0.00         20.97         0.00         0.00
    110.0       20.82            0.00            0.00         20.82         0.00         0.00
    106.0       20.67            0.00            0.00         20.67         0.00         0.00
    102.0       20.51            0.00            0.00         20.51         0.00         0.00
     98.0       20.34            0.00            0.00         20.34         0.00         0.00
     94.0       20.17            0.00            0.00         20.17         0.00         0.00
     90.0       20.00            0.00            0.00         20.00         0.00         0.00
     86.0       19.82            0.00            0.00         19.82         0.00         0.00
     82.0       19.63            0.00            0.00         19.63         0.00         0.00
     78.0       19.44            0.00            0.00         19.44         0.00         0.00
     74.0       19.23            0.00            0.00         19.23         0.00         0.00
     70.0       19.02            0.00            0.00         19.02         0.00         0.00
     66.0       18.80            0.00            0.00         18.80         0.00         0.00
     62.0       18.56            0.00            0.00         18.56         0.00         0.00
     58.0       18.32            0.00            0.00         18.32         0.00         0.00
     54.0       18.06            0.00            0.00         18.06         0.00         0.00
     50.0       17.78            0.00            0.00         17.78         0.00         0.00
     46.0       17.49            0.00            0.00         17.49         0.00         0.00
     42.0       17.17            0.00            0.00         17.17         0.00         0.00
     38.0       16.83            0.00            0.00         16.83         0.00         0.00
     34.0       16.46            0.00            0.00         16.46         0.00         0.00
     30.0       16.05            0.00            0.00         16.05         0.00         0.00
     26.0       15.60            0.00            0.00         15.60         0.00         0.00


Harvested Random Seeds after Generation of the Random Numbers:

    248675328 K 1
            0 K 2


Scaling statistics from the hub grid point:

  Component  Target Sigma (m/s)  Simulated Sigma (m/s)  Scaling Factor
  ---------  ------------------  ---------------------  --------------
     u'             3.296                3.230                1.021
     v'             2.637                2.554                1.033
     w'             1.648                1.521                1.084


Hub-Height Simulated Turbulence Statistical Summary:

   Type of Wind        Min (m/s)   Mean (m/s)    Max (m/s)  Sigma (m/s)       TI (%)
   ----------------    ---------   ----------    ---------  -----------       ------
   Longitudinal (u)         6.57        20.00        32.23        3.296       16.480
   Lateral (v)             -9.85        -0.00        10.02        2.637       13.184
   Vertical (w)            -5.80         0.00         5.99        1.648        8.240
   U component              6.57        20.00        32.23        3.296       16.480
   V component             -9.85        -0.00        10.02        2.637       13.184
   W component             -5.80         0.00         5.99        1.648        8.240
   Horizontal (U&V)         6.96        20.18        32.24        3.272       16.217
   Total                    6.96        20.25        32.24        3.265       16.128

                       Min Reynolds     Mean Reynolds    Max Reynolds    Correlation
   Product             Stress (m/s)^2   Stress (m/s)^2   Stress (m/s)^2  Coefficient
   ----------------    --------------   --------------   --------------  -----------
   u'w'                    -44.851            -0.074            42.002        -0.014
   u'v'                    -69.084            -0.810            44.327        -0.093
   v'w'                    -34.691             0.028            36.113         0.007


   Friction Velocity (Ustar)  =      0.272 m/s
   Maximum Instantaneous TKE  =     93.900 (m/s)^2
   Maximum Instantaneous CTKE =     34.741 (m/s)^2


Grid Point Variance Summary:

   Y-coord  -64.00  -60.00  -56.00  -52.00  -48.00  -44.00  -40.00  -36.00  -32.00  -28.00  -24.00  -20.00  -16.00  -12.00   -8.00   -4.00    0.00    4.00    8.00   12.00   16.00   20.00   24.00   28.00   32.00   36.00   40.00   44.00   48.00   52.00   56.00   60.00   64.00

   Height   Standard deviation at grid points for the u component:
   154.00    3.296   3.296   3.296   3.296   3.296   3.296   3.296   3.296   3.296   3.296   3.296   3.296   3.296   3.296   3.296   3.296   3.296   3.296   3.296   3.296   3.296   3.296   3.296   3.296   3.296   3.296   3.296   3.296   3.296   3.296   3.296   3.296   3.296
   150.00    3.296   3.296   3.296   3.296   3.296   3.296   3.296   3.296   3.296   3.296   3.296   3.296   3.296   3.296   3.296   3.296   3.296   3.296   3.296   3.296   3.296   3.296   3.296   3.296   3.296   3.296   3.296   3.296   3.296   3.296   3.296   3.296   3.296
   146.00    3.296   3.296   3.296   3.296   3.296   3.296   3.296   3.296   3.296   3.296   3.296   3.296   3.296   3.296   3.296   3.296   3.296   3.296   3.296   3.296   3.296   3.296   3.296   3.296   3.296   3.296   3.296   3.296   3.296   3.296   3.296   3.296   3.296
   142.00    3.296   3.296   3.296   3.296   3.296   3.296   3.296   3.296   3.296   3.296   3.296   3.296   3.296   3.296   3.296   3.296   3.296   3.296   3.296   3.296   3.296   3.296   3.296   3.296   3.296   3.296   3.296   3.296   3.296   3.296   3.296   3.296   3.296
   138.00    3.296   3.296   3.296   3.296   3.296   3.296   3.296   3.296   3.296   3.296   3.296   3.296   3.296   3.296   3.296   3.296   3.296   3.296   3.296   3.296   3.296   3.296   3.296   3.296   3.296   3.296   3.296   3.296   3.296   3.296   3.296   3.296   3.296
   134.00    3.296   3.296   3.296   3.296   3.296   3.296   3.296   3.296   3.296   3.296   3.296   3.296   3.296   3.296   3.296   3.296   3.296   3.296   3.296   3.296   3.296   3.296   3.296   3.296   3.296   3.296   3.296   3.296   3.296   3.296   3.296   3.296   3.296
   130.00    3.296   3.296   3.296   3.296   3.296   3.296   3.296   3.296   3.296   3.296   3.296   3.296   3.296   3.296   3.296   3.296   3.296   3.296   3.296   3.296   3.296   3.296   3.296   3.296   3.296   3.296   3.296   3.296   3.296   3.296   3.296   3.296   3.296
   126.00    3.296   3.296   3.296   3.296   3.296   3.296   3.296   3.296   3.296   3.296   3.296   3.296   3.296   3.296   3.296   3.296   3.296   3.296   3.296   3.296   3.296   3.296   3.296   3.296   3.296   3.296   3.296   3.296   3.296   3.296   3.296   3.296   3.296
   122.00    3.296   3.296   3.296   3.296   3.296   3.296   3.296   3.296   3.296   3.296   3.296   3.296   3.296   3.296   3.296   3.296   3.296   3.296   3.296   3.296   3.296   3.296   3.296   3.296   3.296   3.296   3.296   3.296   3.296   3.296   3.296   3.296   3.296
   118.00    3.296   3.296   3.296   3.296   3.296   3.296   3.296   3.296   3.296   3.296   3.296   3.296   3.296   3.296   3.296   3.296   3.296   3.296   3.296   3.296   3.296   3.296   3.296   3.296   3.296   3.296   3.296   3.296   3.296   3.296   3.296   3.296   3.296
   114.00    3.296   3.296   3.296   3.296   3.296   3.296   3.296   3.296   3.296   3.296   3.296   3.296   3.296   3.296   3.296   3.296   3.296   3.296   3.296   3.296   3.296   3.296   3.296   3.296   3.296   3.296   3.296   3.296   3.296   3.296   3.296   3.296   3.296
   110.00    3.296   3.296   3.296   3.296   3.296   3.296   3.296   3.296   3.296   3.296   3.296   3.296   3.296   3.296   3.296   3.296   3.296   3.296   3.296   3.296   3.296   3.296   3.296   3.296   3.296   3.296   3.296   3.296   3.296   3.296   3.296   3.296   3.296
   106.00    3.296   3.296   3.296   3.296   3.296   3.296   3.296   3.296   3.296   3.296   3.296   3.296   3.296   3.296   3.296   3.296   3.296   3.296   3.296   3.296   3.296   3.296   3.296   3.296   3.296   3.296   3.296   3.296   3.296   3.296   3.296   3.296   3.296
   102.00    3.296   3.296   3.296   3.296   3.296   3.296   3.296   3.296   3.296   3.296   3.296   3.296   3.296   3.296   3.296   3.296   3.296   3.296   3.296   3.296   3.296   3.296   3.296   3.296   3.296   3.296   3.296   3.296   3.296   3.296   3.296   3.296   3.296
    98.00    3.296   3.296   3.296   3.296   3.296   3.296   3.296   3.296   3.296   3.296   3.296   3.296   3.296   3.296   3.296   3.296   3.296   3.296   3.296   3.296   3.296   3.296   3.296   3.296   3.296   3.296   3.296   3.296   3.296   3.296   3.296   3.296   3.296
    94.00    3.296   3.296   3.296   3.296   3.296   3.296   3.296   3.296   3.296   3.296   3.296   3.296   3.296   3.296   3.296   3.296   3.296   3.296   3.296   3.296   3.296   3.296   3.296   3.296   3.296   3.296   3.296   3.296   3.296   3.296   3.296   3.296   3.296
    90.00    3.296   3.296   3.296   3.296   3.296   3.296   3.296   3.296   3.296   3.296   3.296   3.296   3.296   3.296   3.296   3.296   3.296   3.296   3.296   3.296   3.296   3.296   3.296   3.296   3.296   3.296   3.296   3.296   3.296   3.296   3.296   3.296   3.296
    86.00    3.296   3.296   3.296   3.296   3.296   3.296   3.296   3.296   3.296   3.296   3.296   3.296   3.296   3.296   3.296   3.296   3.296   3.296   3.296   3.296   3.296   3.296   3.296   3.296   3.296   3.296   3.296   3.296   3.296   3.296   3.296   3.296   3.296
    82.00    3.296   3.296   3.296   3.296   3.296   3.296   3.296   3.296   3.296   3.296   3.296   3.296   3.296   3.296   3.296   3.296   3.296   3.296   3.296   3.296   3.296   3.296   3.296   3.296   3.296   3.296   3.296   3.296   3.296   3.296   3.296   3.296   3.296
    78.00    3.296   3.296   3.296   3.296   3.296   3.296   3.296   3.296   3.296   3.296   3.296   3.296   3.296   3.296   3.296   3.296   3.296   3.296   3.296   3.296   3.296   3.296   3.296   3.296   3.296   3.296   3.296   3.296   3.296   3.296   3.296   3.296   3.296
    74.00    3.296   3.296   3.296   3.296   3.296   3.296   3.296   3.296   3.296   3.296   3.296   3.296   3.296   3.296   3.296   3.296   3.296   3.296   3.296   3.296   3.296   3.296   3.296   3.296   3.296   3.296   3.296   3.296   3.296   3.296   3.296   3.296   3.296
    70.00    3.296   3.296   3.296   3.296   3.296   3.296   3.296   3.296   3.296   3.296   3.296   3.296   3.296   3.296   3.296   3.296   3.296   3.296   3.296   3.296   3.296   3.296   3.296   3.296   3.296   3.296   3.296   3.296   3.296   3.296   3.296   3.296   3.296
    66.00    3.296   3.296   3.296   3.296   3.296   3.296   3.296   3.296   3.296   3.296   3.296   3.296   3.296   3.296   3.296   3.296   3.296   3.296   3.296   3.296   3.296   3.296   3.296   3.296   3.296   3.296   3.296   3.296   3.296   3.296   3.296   3.296   3.296
    62.00    3.296   3.296   3.296   3.296   3.296   3.296   3.296   3.296   3.296   3.296   3.296   3.296   3.296   3.296   3.296   3.296   3.296   3.296   3.296   3.296   3.296   3.296   3.296   3.296   3.296   3.296   3.296   3.296   3.296   3.296   3.296   3.296   3.296
    58.00    3.296   3.296   3.296   3.296   3.296   3.296   3.296   3.296   3.296   3.296   3.296   3.296   3.296   3.296   3.296   3.296   3.296   3.296   3.296   3.296   3.296   3.296   3.296   3.296   3.296   3.296   3.296   3.296   3.296   3.296   3.296   3.296   3.296
    54.00    3.296   3.296   3.296   3.296   3.296   3.296   3.296   3.296   3.296   3.296   3.296   3.296   3.296   3.296   3.296   3.296   3.296   3.296   3.296   3.296   3.296   3.296   3.296   3.296   3.296   3.296   3.296   3.296   3.296   3.296   3.296   3.296   3.296
    50.00    3.296   3.296   3.296   3.296   3.296   3.296   3.296   3.296   3.296   3.296   3.296   3.296   3.296   3.296   3.296   3.296   3.296   3.296   3.296   3.296   3.296   3.296   3.296   3.296   3.296   3.296   3.296   3.296   3.296   3.296   3.296   3.296   3.296
    46.00    3.296   3.296   3.296   3.296   3.296   3.296   3.296   3.296   3.296   3.296   3.296   3.296   3.296   3.296   3.296   3.296   3.296   3.296   3.296   3.296   3.296   3.296   3.296   3.296   3.296   3.296   3.296   3.296   3.296   3.296   3.296   3.296   3.296
    42.00    3.296   3.296   3.296   3.296   3.296   3.296   3.296   3.296   3.296   3.296   3.296   3.296   3.296   3.296   3.296   3.296   3.296   3.296   3.296   3.296   3.296   3.296   3.296   3.296   3.296   3.296   3.296   3.296   3.296   3.296   3.296   3.296   3.296
    38.00    3.296   3.296   3.296   3.296   3.296   3.296   3.296   3.296   3.296   3.296   3.296   3.296   3.296   3.296   3.296   3.296   3.296   3.296   3.296   3.296   3.296   3.296   3.296   3.296   3.296   3.296   3.296   3.296   3.296   3.296   3.296   3.296   3.296
    34.00    3.296   3.296   3.296   3.296   3.296   3.296   3.296   3.296   3.296   3.296   3.296   3.296   3.296   3.296   3.296   3.296   3.296   3.296   3.296   3.296   3.296   3.296   3.296   3.296   3.296   3.296   3.296   3.296   3.296   3.296   3.296   3.296   3.296
    30.00    3.296   3.296   3.296   3.296   3.296   3.296   3.296   3.296   3.296   3.296   3.296   3.296   3.296   3.296   3.296   3.296   3.296   3.296   3.296   3.296   3.296   3.296   3.296   3.296   3.296   3.296   3.296   3.296   3.296   3.296   3.296   3.296   3.296
    26.00    3.296   3.296   3.296   3.296   3.296   3.296   3.296   3.296   3.296   3.296   3.296   3.296   3.296   3.296   3.296   3.296   3.296   3.296   3.296   3.296   3.296   3.296   3.296   3.296   3.296   3.296   3.296   3.296   3.296   3.296   3.296   3.296   3.296

   Height   Standard deviation at grid points for the v component:
   154.00    2.637   2.637   2.637   2.637   2.637   2.637   2.637   2.637   2.637   2.637   2.637   2.637   2.637   2.637   2.637   2.637   2.637   2.637   2.637   2.637   2.637   2.637   2.637   2.637   2.637   2.637   2.637   2.637   2.637   2.637   2.637   2.637   2.637
   150.00    2.637   2.637   2.637   2.637   2.637   2.637   2.637   2.637   2.637   2.637   2.637   2.637   2.637   2.637   2.637   2.637   2.637   2.637   2.637   2.637   2.637   2.637   2.637   2.637   2.637   2.637   2.637   2.637   2.637   2.637   2.637   2.637   2.637
   146.00    2.637   2.637   2.637   2.637   2.637   2.637   2.637   2.637   2.637   2.637   2.637   2.637   2.637   2.637   2.637   2.637   2.637   2.637   2.637   2.637   2.637   2.637   2.637   2.637   2.637   2.637   2.637   2.637   2.637   2.637   2.637   2.637   2.637
   142.00    2.637   2.637   2.637   2.637   2.637   2.637   2.637   2.637   2.637   2.637   2.637   2.637   2.637   2.637   2.637   2.637   2.637   2.637   2.637   2.637   2.637   2.637   2.637   2.637   2.637   2.637   2.637   2.637   2.637   2.637   2.637   2.637   2.637
   138.00    2.637   2.637   2.637   2.637   2.637   2.637   2.637   2.637   2.637   2.637   2.637   2.637   2.637   2.637   2.637   2.637   2.637   2.637   2.637   2.637   2.637   2.637   2.637   2.637   2.637   2.637   2.637   2.637   2.637   2.637   2.637   2.637   2.637
   134.00    2.637   2.637   2.637   2.637   2.637   2.637   2.637   2.637   2.637   2.637   2.637   2.637   2.637   2.637   2.637   2.637   2.637   2.637   2.637   2.637   2.637   2.637   2.637   2.637   2.637   2.637   2.637   2.637   2.637   2.637   2.637   2.637   2.637
   130.00    2.637   2.637   2.637   2.637   2.637   2.637   2.637   2.637   2.637   2.637   2.637   2.637   2.637   2.637   2.637   2.637   2.637   2.637   2.637   2.637   2.637   2.637   2.637   2.637   2.637   2.637   2.637   2.637   2.637   2.637   2.637   2.637   2.637
   126.00    2.637   2.637   2.637   2.637   2.637   2.637   2.637   2.637   2.637   2.637   2.637   2.637   2.637   2.637   2.637   2.637   2.637   2.637   2.637   2.637   2.637   2.637   2.637   2.637   2.637   2.637   2.637   2.637   2.637   2.637   2.637   2.637   2.637
   122.00    2.637   2.637   2.637   2.637   2.637   2.637   2.637   2.637   2.637   2.637   2.637   2.637   2.637   2.637   2.637   2.637   2.637   2.637   2.637   2.637   2.637   2.637   2.637   2.637   2.637   2.637   2.637   2.637   2.637   2.637   2.637   2.637   2.637
   118.00    2.637   2.637   2.637   2.637   2.637   2.637   2.637   2.637   2.637   2.637   2.637   2.637   2.637   2.637   2.637   2.637   2.637   2.637   2.637   2.637   2.637   2.637   2.637   2.637   2.637   2.637   2.637   2.637   2.637   2.637   2.637   2.637   2.637
   114.00    2.637   2.637   2.637   2.637   2.637   2.637   2.637   2.637   2.637   2.637   2.637   2.637   2.637   2.637   2.637   2.637   2.637   2.637   2.637   2.637   2.637   2.637   2.637   2.637   2.637   2.637   2.637   2.637   2.637   2.637   2.637   2.637   2.637
   110.00    2.637   2.637   2.637   2.637   2.637   2.637   2.637   2.637   2.637   2.637   2.637   2.637   2.637   2.637   2.637   2.637   2.637   2.637   2.637   2.637   2.637   2.637   2.637   2.637   2.637   2.637   2.637   2.637   2.637   2.637   2.637   2.637   2.637
   106.00    2.637   2.637   2.637   2.637   2.637   2.637   2.637   2.637   2.637   2.637   2.637   2.637   2.637   2.637   2.637   2.637   2.637   2.637   2.637   2.637   2.637   2.637   2.637   2.637   2.637   2.637   2.637   2.637   2.637   2.637   2.637   2.637   2.637
   102.00    2.637   2.637   2.637   2.637   2.637   2.637   2.637   2.637   2.637   2.637   2.637   2.637   2.637   2.637   2.637   2.637   2.637   2.637   2.637   2.637   2.637   2.637   2.637   2.637   2.637   2.637   2.637   2.637   2.637   2.637   2.637   2.637   2.637
    98.00    2.637   2.637   2.637   2.637   2.637   2.637   2.637   2.637   2.637   2.637   2.637   2.637   2.637   2.637   2.637   2.637   2.637   2.637   2.637   2.637   2.637   2.637   2.637   2.637   2.637   2.637   2.637   2.637   2.637   2.637   2.637   2.637   2.637
    94.00    2.637   2.637   2.637   2.637   2.637   2.637   2.637   2.637   2.637   2.637   2.637   2.637   2.637   2.637   2.637   2.637   2.637   2.637   2.637   2.637   2.637   2.637   2.637   2.637   2.637   2.637   2.637   2.637   2.637   2.637   2.637   2.637   2.637
    90.00    2.637   2.637   2.637   2.637   2.637   2.637   2.637   2.637   2.637   2.637   2.637   2.637   2.637   2.637   2.637   2.637   2.637   2.637   2.637   2.637   2.637   2.637   2.637   2.637   2.637   2.637   2.637   2.637   2.637   2.637   2.637   2.637   2.637
    86.00    2.637   2.637   2.637   2.637   2.637   2.637   2.637   2.637   2.637   2.637   2.637   2.637   2.637   2.637   2.637   2.637   2.637   2.637   2.637   2.637   2.637   2.637   2.637   2.637   2.637   2.637   2.637   2.637   2.637   2.637   2.637   2.637   2.637
    82.00    2.637   2.637   2.637   2.637   2.637   2.637   2.637   2.637   2.637   2.637   2.637   2.637   2.637   2.637   2.637   2.637   2.637   2.637   2.637   2.637   2.637   2.637   2.637   2.637   2.637   2.637   2.637   2.637   2.637   2.637   2.637   2.637   2.637
    78.00    2.637   2.637   2.637   2.637   2.637   2.637   2.637   2.637   2.637   2.637   2.637   2.637   2.637   2.637   2.637   2.637   2.637   2.637   2.637   2.637   2.637   2.637   2.637   2.637   2.637   2.637   2.637   2.637   2.637   2.637   2.637   2.637   2.637
    74.00    2.637   2.637   2.637   2.637   2.637   2.637   2.637   2.637   2.637   2.637   2.637   2.637   2.637   2.637   2.637   2.637   2.637   2.637   2.637   2.637   2.637   2.637   2.637   2.637   2.637   2.637   2.637   2.637   2.637   2.637   2.637   2.637   2.637
    70.00    2.637   2.637   2.637   2.637   2.637   2.637   2.637   2.637   2.637   2.637   2.637   2.637   2.637   2.637   2.637   2.637   2.637   2.637   2.637   2.637   2.637   2.637   2.637   2.637   2.637   2.637   2.637   2.637   2.637   2.637   2.637   2.637   2.637
    66.00    2.637   2.637   2.637   2.637   2.637   2.637   2.637   2.637   2.637   2.637   2.637   2.637   2.637   2.637   2.637   2.637   2.637   2.637   2.637   2.637   2.637   2.637   2.637   2.637   2.637   2.637   2.637   2.637   2.637   2.637   2.637   2.637   2.637
    62.00    2.637   2.637   2.637   2.637   2.637   2.637   2.637   2.637   2.637   2.637   2.637   2.637   2.637   2.637   2.637   2.637   2.637   2.637   2.637   2.637   2.637   2.637   2.637   2.637   2.637   2.637   2.637   2.637   2.637   2.637   2.637   2.637   2.637
    58.00    2.637   2.637   2.637   2.637   2.637   2.637   2.637   2.637   2.637   2.637   2.637   2.637   2.637   2.637   2.637   2.637   2.637   2.637   2.637   2.637   2.637   2.637   2.637   2.637   2.637   2.637   2.637   2.637   2.637   2.637   2.637   2.637   2.637
    54.00    2.637   2.637   2.637   2.637   2.637   2.637   2.637   2.637   2.637   2.637   2.637   2.637   2.637   2.637   2.637   2.637   2.637   2.637   2.637   2.637   2.637   2.637   2.637   2.637   2.637   2.637   2.637   2.637   2.637   2.637   2.637   2.637   2.637
    50.00    2.637   2.637   2.637   2.637   2.637   2.637   2.637   2.637   2.637   2.637   2.637   2.637   2.637   2.637   2.637   2.637   2.637   2.637   2.637   2.637   2.637   2.637   2.637   2.637   2.637   2.637   2.637   2.637   2.637   2.637   2.637   2.637   2.637
    46.00    2.637   2.637   2.637   2.637   2.637   2.637   2.637   2.637   2.637   2.637   2.637   2.637   2.637   2.637   2.637   2.637   2.637   2.637   2.637   2.637   2.637   2.637   2.637   2.637   2.637   2.637   2.637   2.637   2.637   2.637   2.637   2.637   2.637
    42.00    2.637   2.637   2.637   2.637   2.637   2.637   2.637   2.637   2.637   2.637   2.637   2.637   2.637   2.637   2.637   2.637   2.637   2.637   2.637   2.637   2.637   2.637   2.637   2.637   2.637   2.637   2.637   2.637   2.637   2.637   2.637   2.637   2.637
    38.00    2.637   2.637   2.637   2.637   2.637   2.637   2.637   2.637   2.637   2.637   2.637   2.637   2.637   2.637   2.637   2.637   2.637   2.637   2.637   2.637   2.637   2.637   2.637   2.637   2.637   2.637   2.637   2.637   2.637   2.637   2.637   2.637   2.637
    34.00    2.637   2.637   2.637   2.637   2.637   2.637   2.637   2.637   2.637   2.637   2.637   2.637   2.637   2.637   2.637   2.637   2.637   2.637   2.637   2.637   2.637   2.637   2.637   2.637   2.637   2.637   2.637   2.637   2.637   2.637   2.637   2.637   2.637
    30.00    2.637   2.637   2.637   2.637   2.637   2.637   2.637   2.637   2.637   2.637   2.637   2.637   2.637   2.637   2.637   2.637   2.637   2.637   2.637   2.637   2.637   2.637   2.637   2.637   2.637   2.637   2.637   2.637   2.637   2.637   2.637   2.637   2.637
    26.00    2.637   2.637   2.637   2.637   2.637   2.637   2.637   2.637   2.637   2.637   2.637   2.637   2.637   2.637   2.637   2.637   2.637   2.637   2.637   2.637   2.637   2.637   2.637   2.637   2.637   2.637   2.637   2.637   2.637   2.637   2.637   2.637   2.637

   Height   Standard deviation at grid points for the w component:
   154.00    1.648   1.648   1.648   1.648   1.648   1.648   1.648   1.648   1.648   1.648   1.648   1.648   1.648   1.648   1.648   1.648   1.648   1.648   1.648   1.648   1.648   1.648   1.648   1.648   1.648   1.648   1.648   1.648   1.648   1.648   1.648   1.648   1.648
   150.00    1.648   1.648   1.648   1.648   1.648   1.648   1.648   1.648   1.648   1.648   1.648   1.648   1.648   1.648   1.648   1.648   1.648   1.648   1.648   1.648   1.648   1.648   1.648   1.648   1.648   1.648   1.648   1.648   1.648   1.648   1.648   1.648   1.648
   146.00    1.648   1.648   1.648   1.648   1.648   1.648   1.648   1.648   1.648   1.648   1.648   1.648   1.648   1.648   1.648   1.648   1.648   1.648   1.648   1.648   1.648   1.648   1.648   1.648   1.648   1.648   1.648   1.648   1.648   1.648   1.648   1.648   1.648
   142.00    1.648   1.648   1.648   1.648   1.648   1.648   1.648   1.648   1.648   1.648   1.648   1.648   1.648   1.648   1.648   1.648   1.648   1.648   1.648   1.648   1.648   1.648   1.648   1.648   1.648   1.648   1.648   1.648   1.648   1.648   1.648   1.648   1.648
   138.00    1.648   1.648   1.648   1.648   1.648   1.648   1.648   1.648   1.648   1.648   1.648   1.648   1.648   1.648   1.648   1.648   1.648   1.648   1.648   1.648   1.648   1.648   1.648   1.648   1.648   1.648   1.648   1.648   1.648   1.648   1.648   1.648   1.648
   134.00    1.648   1.648   1.648   1.648   1.648   1.648   1.648   1.648   1.648   1.648   1.648   1.648   1.648   1.648   1.648   1.648   1.648   1.648   1.648   1.648   1.648   1.648   1.648   1.648   1.648   1.648   1.648   1.648   1.648   1.648   1.648   1.648   1.648
   130.00    1.648   1.648   1.648   1.648   1.648   1.648   1.648   1.648   1.648   1.648   1.648   1.648   1.648   1.648   1.648   1.648   1.648   1.648   1.648   1.648   1.648   1.648   1.648   1.648   1.648   1.648   1.648   1.648   1.648   1.648   1.648   1.648   1.648
   126.00    1.648   1.648   1.648   1.648   1.648   1.648   1.648   1.648   1.648   1.648   1.648   1.648   1.648   1.648   1.648   1.648   1.648   1.648   1.648   1.648   1.648   1.648   1.648   1.648   1.648   1.648   1.648   1.648   1.648   1.648   1.648   1.648   1.648
   122.00    1.648   1.648   1.648   1.648   1.648   1.648   1.648   1.648   1.648   1.648   1.648   1.648   1.648   1.648   1.648   1.648   1.648   1.648   1.648   1.648   1.648   1.648   1.648   1.648   1.648   1.648   1.648   1.648   1.648   1.648   1.648   1.648   1.648
   118.00    1.648   1.648   1.648   1.648   1.648   1.648   1.648   1.648   1.648   1.648   1.648   1.648   1.648   1.648   1.648   1.648   1.648   1.648   1.648   1.648   1.648   1.648   1.648   1.648   1.648   1.648   1.648   1.648   1.648   1.648   1.648   1.648   1.648
   114.00    1.648   1.648   1.648   1.648   1.648   1.648   1.648   1.648   1.648   1.648   1.648   1.648   1.648   1.648   1.648   1.648   1.648   1.648   1.648   1.648   1.648   1.648   1.648   1.648   1.648   1.648   1.648   1.648   1.648   1.648   1.648   1.648   1.648
   110.00    1.648   1.648   1.648   1.648   1.648   1.648   1.648   1.648   1.648   1.648   1.648   1.648   1.648   1.648   1.648   1.648   1.648   1.648   1.648   1.648   1.648   1.648   1.648   1.648   1.648   1.648   1.648   1.648   1.648   1.648   1.648   1.648   1.648
   106.00    1.648   1.648   1.648   1.648   1.648   1.648   1.648   1.648   1.648   1.648   1.648   1.648   1.648   1.648   1.648   1.648   1.648   1.648   1.648   1.648   1.648   1.648   1.648   1.648   1.648   1.648   1.648   1.648   1.648   1.648   1.648   1.648   1.648
   102.00    1.648   1.648   1.648   1.648   1.648   1.648   1.648   1.648   1.648   1.648   1.648   1.648   1.648   1.648   1.648   1.648   1.648   1.648   1.648   1.648   1.648   1.648   1.648   1.648   1.648   1.648   1.648   1.648   1.648   1.648   1.648   1.648   1.648
    98.00    1.648   1.648   1.648   1.648   1.648   1.648   1.648   1.648   1.648   1.648   1.648   1.648   1.648   1.648   1.648   1.648   1.648   1.648   1.648   1.648   1.648   1.648   1.648   1.648   1.648   1.648   1.648   1.648   1.648   1.648   1.648   1.648   1.648
    94.00    1.648   1.648   1.648   1.648   1.648   1.648   1.648   1.648   1.648   1.648   1.648   1.648   1.648   1.648   1.648   1.648   1.648   1.648   1.648   1.648   1.648   1.648   1.648   1.648   1.648   1.648   1.648   1.648   1.648   1.648   1.648   1.648   1.648
    90.00    1.648   1.648   1.648   1.648   1.648   1.648   1.648   1.648   1.648   1.648   1.648   1.648   1.648   1.648   1.648   1.648   1.648   1.648   1.648   1.648   1.648   1.648   1.648   1.648   1.648   1.648   1.648   1.648   1.648   1.648   1.648   1.648   1.648
    86.00    1.648   1.648   1.648   1.648   1.648   1.648   1.648   1.648   1.648   1.648   1.648   1.648   1.648   1.648   1.648   1.648   1.648   1.648   1.648   1.648   1.648   1.648   1.648   1.648   1.648   1.648   1.648   1.648   1.648   1.648   1.648   1.648   1.648
    82.00    1.648   1.648   1.648   1.648   1.648   1.648   1.648   1.648   1.648   1.648   1.648   1.648   1.648   1.648   1.648   1.648   1.648   1.648   1.648   1.648   1.648   1.648   1.648   1.648   1.648   1.648   1.648   1.648   1.648   1.648   1.648   1.648   1.648
    78.00    1.648   1.648   1.648   1.648   1.648   1.648   1.648   1.648   1.648   1.648   1.648   1.648   1.648   1.648   1.648   1.648   1.648   1.648   1.648   1.648   1.648   1.648   1.648   1.648   1.648   1.648   1.648   1.648   1.648   1.648   1.648   1.648   1.648
    74.00    1.648   1.648   1.648   1.648   1.648   1.648   1.648   1.648   1.648   1.648   1.648   1.648   1.648   1.648   1.648   1.648   1.648   1.648   1.648   1.648   1.648   1.648   1.648   1.648   1.648   1.648   1.648   1.648   1.648   1.648   1.648   1.648   1.648
    70.00    1.648   1.648   1.648   1.648   1.648   1.648   1.648   1.648   1.648   1.648   1.648   1.648   1.648   1.648   1.648   1.648   1.648   1.648   1.648   1.648   1.648   1.648   1.648   1.648   1.648   1.648   1.648   1.648   1.648   1.648   1.648   1.648   1.648
    66.00    1.648   1.648   1.648   1.648   1.648   1.648   1.648   1.648   1.648   1.648   1.648   1.648   1.648   1.648   1.648   1.648   1.648   1.648   1.648   1.648   1.648   1.648   1.648   1.648   1.648   1.648   1.648   1.648   1.648   1.648   1.648   1.648   1.648
    62.00    1.648   1.648   1.648   1.648   1.648   1.648   1.648   1.648   1.648   1.648   1.648   1.648   1.648   1.648   1.648   1.648   1.648   1.648   1.648   1.648   1.648   1.648   1.648   1.648   1.648   1.648   1.648   1.648   1.648   1.648   1.648   1.648   1.648
    58.00    1.648   1.648   1.648   1.648   1.648   1.648   1.648   1.648   1.648   1.648   1.648   1.648   1.648   1.648   1.648   1.648   1.648   1.648   1.648   1.648   1.648   1.648   1.648   1.648   1.648   1.648   1.648   1.648   1.648   1.648   1.648   1.648   1.648
    54.00    1.648   1.648   1.648   1.648   1.648   1.648   1.648   1.648   1.648   1.648   1.648   1.648   1.648   1.648   1.648   1.648   1.648   1.648   1.648   1.648   1.648   1.648   1.648   1.648   1.648   1.648   1.648   1.648   1.648   1.648   1.648   1.648   1.648
    50.00    1.648   1.648   1.648   1.648   1.648   1.648   1.648   1.648   1.648   1.648   1.648   1.648   1.648   1.648   1.648   1.648   1.648   1.648   1.648   1.648   1.648   1.648   1.648   1.648   1.648   1.648   1.648   1.648   1.648   1.648   1.648   1.648   1.648
    46.00    1.648   1.648   1.648   1.648   1.648   1.648   1.648   1.648   1.648   1.648   1.648   1.648   1.648   1.648   1.648   1.648   1.648   1.648   1.648   1.648   1.648   1.648   1.648   1.648   1.648   1.648   1.648   1.648   1.648   1.648   1.648   1.648   1.648
    42.00    1.648   1.648   1.648   1.648   1.648   1.648   1.648   1.648   1.648   1.648   1.648   1.648   1.648   1.648   1.648   1.648   1.648   1.648   1.648   1.648   1.648   1.648   1.648   1.648   1.648   1.648   1.648   1.648   1.648   1.648   1.648   1.648   1.648
    38.00    1.648   1.648   1.648   1.648   1.648   1.648   1.648   1.648   1.648   1.648   1.648   1.648   1.648   1.648   1.648   1.648   1.648   1.648   1.648   1.648   1.648   1.648   1.648   1.648   1.648   1.648   1.648   1.648   1.648   1.648   1.648   1.648   1.648
    34.00    1.648   1.648   1.648   1.648   1.648   1.648   1.648   1.648   1.648   1.648   1.648   1.648   1.648   1.648   1.648   1.648   1.648   1.648   1.648   1.648   1.648   1.648   1.648   1.648   1.648   1.648   1.648   1.648   1.648   1.648   1.648   1.648   1.648
    30.00    1.648   1.648   1.648   1.648   1.648   1.648   1.648   1.648   1.648   1.648   1.648   1.648   1.648   1.648   1.648   1.648   1.648   1.648   1.648   1.648   1.648   1.648   1.648   1.648   1.648   1.648   1.648   1.648   1.648   1.648   1.648   1.648   1.648
    26.00    1.648   1.648   1.648   1.648   1.648   1.648   1.648   1.648   1.648   1.648   1.648   1.648   1.648   1.648   1.648   1.648   1.648   1.648   1.648   1.648   1.648   1.648   1.648   1.648   1.648   1.648   1.648   1.648   1.648   1.648   1.648   1.648   1.648

   Mean standard deviation across all grid points:
      u component:    3.296 m/s
      v component:    2.637 m/s
      w component:    1.648 m/s


U-component (X) statistics from the interpolated hub point:

   Mean =  20.0000 m/s
   TI   =  16.4800 %


Normalizing Parameters for Binary Data (approximate statistics):

   UBar  =  20.0000 m/s
   TI(u) =  16.4800 %
   TI(v) =  13.1840 %
   TI(w) =   8.2400 %

   Height Offset =   0.0000 m
   Grid Base     =  26.0000 m

Creating a PERIODIC output file.


Processing complete.  176.69 CPU seconds used.
